This file is only for testing and is not related to this project.

new line.